<?xml version="1.0" encoding="UTF-8"?>

<!-- generated on Wed Jan 15 12:07:28 2020 by Eclipse SUMO polyconvert Version 1.1.0
<configuration xmlns:xsi="http://www.w3.org/2001/XMLSchema-instance" xsi:noNamespaceSchemaLocation="http://sumo.dlr.de/xsd/polyconvertConfiguration.xsd">

    <input>
        <net-file value="osm.net.xml"/>
        <osm-files value="osm_bbox.osm.xml"/>
        <osm.keep-full-type value="true"/>
        <type-file value="/usr/share/sumo/data/typemap/osmPolyconvert.typ.xml"/>
    </input>

    <output>
        <output-file value="osm.poly.xml"/>
    </output>

    <processing>
        <poi-layer-offset value="5"/>
    </processing>

    <report>
        <verbose value="true"/>
    </report>

</configuration>
-->

<additional xmlns:xsi="http://www.w3.org/2001/XMLSchema-instance" xsi:noNamespaceSchemaLocation="http://sumo.dlr.de/xsd/additional_file.xsd">
    <location netOffset="-194251.59,-245131.17" convBoundary="-1794.29,-3047.50,3065.44,5803.51" origBoundary="102.235146,2.187648,102.278774,2.267698" projParameter="+proj=utm +zone=48 +ellps=WGS84 +datum=WGS84 +units=m +no_defs"/>

    <poly id="198676532" type="waterway.river" color="181,209,209" fill="0" layer="-4.00" shape="-1794.291678,4158.717866 -1789.691388,4142.585761 -1749.137438,4031.161280 -1726.680407,3921.630302 -1709.921984,3883.033040 -1574.576712,3760.872081 -1505.635445,3690.715119 -1488.269601,3667.144613 -1445.671148,3553.381799 -1425.454144,3518.739824 -1384.716154,3504.232580 -1304.545457,3485.501025 -1262.856642,3473.437646 -1226.383692,3440.480285 -1151.852975,3305.952898 -1135.411057,3246.950676 -1072.726912,3187.861229 -973.489880,3144.018386 -936.937685,3153.023647 -903.182280,3196.051277 -866.606603,3217.527946 -780.422655,3211.699650 -741.568195,3231.467854 -714.644042,3282.453743 -672.891310,3322.057895 -586.625267,3359.885022 -557.535611,3349.062939 -513.443238,3312.937773 -463.197998,3304.709584 -427.499391,3286.162077 -336.985102,3239.115975 -271.708693,3202.951102 -219.727823,3158.733113 -145.678643,3075.620940 -124.674008,3015.692248 -133.821626,2963.887347 -122.407744,2865.090765 -138.038523,2775.363772 -113.981167,2491.243292 -83.445948,2455.741638 13.225941,2385.468438 74.265357,2375.106975 260.374587,2383.832537 404.710718,2353.761747 503.730990,2283.263461 611.133431,2182.860572 663.189447,2065.331607 764.735194,1904.420502 907.867877,1628.745078 981.880254,1542.946051 1079.609977,1358.738256 1085.274613,1292.055684 1066.678800,1259.180267 1001.526422,1236.826531 908.052536,1183.607298 853.052597,1179.316393 772.767595,1226.573344 491.455603,1229.055596 442.104830,1215.713433 405.594474,1175.291099 334.221899,1136.637831 204.049166,1031.875300 118.321586,978.254318 9.334182,939.958766 -176.796426,944.676672 -357.465883,947.005422 -407.108021,956.736524 -539.709698,1018.500028 -565.926304,1042.086430 -623.727879,1117.609434 -666.779868,1139.235451 -790.363415,1142.011601 -855.137287,1156.031663 -887.129849,1138.795226 -892.051820,1102.231088 -884.432688,1057.133702 -896.780259,1014.353245 -942.499777,990.624518 -972.797643,962.894244 -970.002400,933.685661 -950.378572,896.787915 -949.922053,837.251614 -948.767118,686.706664 -927.746323,634.778640 -900.797720,544.008759 -899.818764,460.081905 -909.728384,345.566617 -960.561010,182.636051 -996.057374,125.147547 -986.406105,95.074122 -958.176405,82.273437 -922.939705,66.095633 -912.640899,42.992648 -920.470714,16.990906 -942.714337,4.239941 -971.200939,-1.350724 -1023.755777,22.749436 -1047.163506,18.554719 -1056.584491,-1.058956 -1057.129603,-18.796861 -1031.886404,-75.125915 -978.328136,-128.342735 -959.436253,-134.054779 -942.958272,-126.837163 -936.842885,-112.827835 -900.010310,-102.970103 -878.057035,-114.641374 -864.428744,-155.212768 -847.487656,-204.255847 -823.433054,-223.356320 -757.440297,-264.744293 -736.723550,-294.860311 -733.573705,-391.052257 -716.012795,-412.121426 -691.385528,-422.602437 -640.869294,-423.548310 -612.597623,-437.776386 -603.544208,-460.190850 -588.478721,-512.240246 -514.273993,-615.679299 -475.351289,-685.323572 -427.109724,-742.336596 -365.927307,-754.478699 -350.600778,-767.863768 -350.445579,-804.282313 -367.367206,-846.722350 -363.094313,-865.774876 -350.077840,-882.243073 -320.306378,-892.158000 -288.333044,-891.287633 -260.001815,-885.408684 -237.107971,-870.124632 -224.674963,-846.964360 -216.612944,-821.660262 -203.462193,-795.646296 -180.797461,-783.847624 -115.865212,-772.813271 -65.523037,-765.492213 -15.176427,-761.778664 3.698038,-764.867795 12.215634,-776.104461 14.350357,-795.595609 11.130331,-839.256031 -17.512629,-893.348935 -30.344889,-915.722768 -48.171195,-923.723715 -106.073000,-937.515531 -125.226710,-952.972504 -130.143117,-968.854183 -125.588136,-979.862207 -112.357530,-994.925359 -41.516053,-1039.176422 -30.601765,-1054.688976 -25.869200,-1072.015993 -9.894363,-1192.476642 40.157980,-1360.296161 43.067049,-1382.499888 44.399355,-1402.531773 40.871227,-1420.208703 32.231685,-1432.785854 18.061364,-1444.312600 2.850815,-1446.442407 -12.396712,-1444.477731 -25.060761,-1436.044216 -34.812895,-1424.141351 -44.158857,-1409.306747 -97.638076,-1312.812181 -146.539292,-1287.259021 -179.042030,-1291.459399 -207.904394,-1301.608941 -227.005642,-1324.812267 -240.104314,-1352.796132 -245.226936,-1383.904279 -247.109304,-1414.597904 -229.491798,-1459.425620 -175.150041,-1553.088959 -173.930816,-1568.041374 -179.475014,-1580.292274 -189.934173,-1595.599389 -206.931177,-1606.611902 -220.962242,-1609.009472 -236.857908,-1608.360449 -287.660009,-1581.232451 -309.806701,-1571.674808 -334.156982,-1567.823154 -347.531831,-1570.531770 -359.288546,-1577.127545 -381.931484,-1607.229575 -385.854237,-1627.594872 -386.480805,-1647.401887 -375.897471,-1673.404426 -362.764050,-1698.980090 -333.658229,-1743.972868 -327.115736,-1775.932513 -331.245945,-1860.524561 -329.662403,-1889.221651 -319.119268,-1912.911284 -308.179746,-1932.938794 -290.636288,-1945.575309 -271.566221,-1957.406813 -251.283311,-1963.508356 -228.951560,-1963.294980 -205.972146,-1961.998326 -184.757032,-1963.630910 -163.924737,-1967.608777 -138.253733,-1973.664892 -115.130723,-1985.061185 -106.479524,-1990.333462 -100.381232,-1997.570784 -96.221599,-2005.700881 -94.624192,-2014.811134 -93.011405,-2076.042238 -91.832379,-2100.776900 -94.427917,-2113.807862 -98.982729,-2126.835219 -116.889052,-2141.984810 -145.404250,-2157.026352 -186.465970,-2184.394461 -207.934737,-2199.592834 -226.812300,-2216.212427 -286.697756,-2267.216098 -376.449918,-2305.394647 -395.578818,-2319.435412 -411.206226,-2336.293392 -486.745412,-2436.523187 -510.455354,-2453.620829 -538.677190,-2460.407698 -574.812922,-2466.538170 -611.249779,-2466.913745 -640.065800,-2469.903860 -666.647993,-2480.987359 -801.626086,-2619.097649 -818.052829,-2640.767940 -824.146918,-2667.503372 -811.958919,-2723.010986 -797.423964,-2797.766766 -792.030253,-2818.912842 -791.190054,-2840.260797 -873.906256,-3047.497626"/>
    <poly id="509576592" type="landuse.orchard" color="194,194,130" fill="0" layer="-3.00" shape="1529.949759,2947.114285 1450.931292,3063.564266 1497.703562,3121.196367 1586.963406,3016.766929"/>
    <poly id="509576593" type="natural.wood" color="140,196,107" fill="1" layer="-4.00" shape="1836.252479,2911.563067 1902.310700,2930.672196 1911.195870,2973.502516 1979.012573,2986.500016 2025.693517,2846.219998 1995.428978,2823.812817 1970.573692,2771.141573 1912.607149,2787.239799 1836.252479,2911.563067"/>
    <poly id="509576594" type="natural.wood" color="140,196,107" fill="1" layer="-4.00" shape="1422.067129,2694.582455 1400.827964,2635.165177 1502.892251,2603.492252 1514.435278,2656.808178 1422.067129,2694.582455"/>
    <poly id="509576595" type="natural.wood" color="140,196,107" fill="1" layer="-4.00" shape="1440.844531,2848.462590 1482.935760,2760.056193 1535.873629,2822.922097 1566.728836,2845.604814 1586.979150,2846.441196 1604.548768,2824.542250 1648.751559,2925.026195 1676.023760,2912.736425 1687.529263,2945.945688 1661.150878,2959.982197 1586.295764,2951.380015 1530.706621,2881.525496 1440.844531,2848.462590"/>
    <poly id="521439642" type="landuse.grass" color="194,194,130" fill="1" layer="-3.00" shape="1088.213711,1561.526980 1101.297876,1503.926767 1119.438323,1507.434105 1124.667828,1512.072053 1114.873635,1566.943922 1088.213711,1561.526980"/>
    <poly id="521439644" type="building.yes" color="255,230,230" fill="1" layer="-1.00" shape="1007.787785,1598.647859 1008.623880,1593.312536 1002.689527,1592.759223 1006.631326,1581.387199 1010.585251,1582.508561 1011.700427,1577.593223 1007.176962,1575.499122 1013.924423,1558.367606 1026.909100,1560.966057 1042.098715,1564.003040 1111.988721,1577.970924 1111.014169,1586.670532 1116.527585,1588.342288 1115.402841,1594.098647 1110.180420,1593.267358 1106.536656,1609.264361 1052.562106,1599.549373 1050.595501,1607.542615 1007.787785,1598.647859"/>
    <poly id="521439647" type="building.yes" color="255,230,230" fill="1" layer="-1.00" shape="1026.909100,1560.966057 1029.999967,1540.975282 1032.639113,1541.446204 1033.810991,1531.108469 1036.788441,1521.951426 1040.237653,1515.062016 1043.103712,1511.847571 1041.667697,1511.850243 1058.471952,1479.263093 1096.030907,1485.135605 1081.569476,1550.384918 1044.957398,1544.864774 1042.098715,1564.003040 1026.909100,1560.966057"/>
    <poly id="522306505" type="waterway.river" color="181,209,209" fill="0" layer="-4.00" shape="3065.437606,5803.506138 3048.109135,5793.391444 3026.710308,5761.606612 3005.300345,5729.821794 3001.245021,5656.939354 2923.739205,5551.849784 2867.009741,5502.724878 2868.718518,5470.199408 2846.430533,5385.842762 2784.175363,5227.708270 2717.448212,5041.452870 2587.890588,4864.975634 2477.033036,4747.377333 2372.517509,4705.379602 2321.978457,4657.116911 2247.503574,4589.567157 2089.723738,4465.018756 1944.503062,4430.998345 1862.880423,4327.409365 1835.412447,4306.358368 1834.439419,4262.406676 1794.486626,4196.540299 1746.635729,4163.222304 1717.322317,4107.892735 1714.584326,4066.577987 1688.782751,3996.291836 1630.185187,3895.293019 1606.170057,3833.800813 1526.307207,3724.929663 1500.518832,3661.681246 1439.112458,3481.555420 1440.796778,3435.839147 1460.220095,3411.192273 1570.702050,3327.460298 1617.532204,3285.167491 1646.664582,3243.793094 1666.893005,3173.420703 1661.487843,3122.439356 1629.466495,3041.618874 1577.134083,2981.053637 1521.233804,2905.545053 1480.471077,2882.759138 1453.923455,2883.694015 1350.241278,2817.946227 1292.667828,2794.317513 1213.780900,2731.157016 1149.456846,2675.283821 1133.475154,2659.367734 1126.238925,2647.175574 1122.425713,2631.989224 1123.067580,2624.009512 1129.164653,2604.433613 1164.423543,2535.228028 1174.611234,2494.597172 1170.809662,2449.864865 1161.881126,2413.673932 1133.729988,2324.955872 1123.919574,2305.332216 1097.625460,2281.146973 1082.143748,2264.720874 1015.389346,2189.077215 989.655283,2154.831992 962.218524,2156.642672 922.441214,2184.846462 893.239418,2189.305210 818.892938,2191.203505 611.133431,2182.860572"/>
    <poly id="563542942" type="landuse.orchard" color="194,194,130" fill="0" layer="-3.00" shape="1586.963406,3016.766929 1606.924313,3065.275543 1640.523745,3150.630079 1609.674753,3262.209470 1523.815276,3333.545744 1435.564794,3400.150441 1417.840126,3463.989465 1352.994810,3480.366729 1226.484661,3529.249488 1200.055811,3445.065472 1244.793275,3420.658795 1232.198888,3394.589030 1188.020277,3396.453432 1161.158202,3401.837541 1140.767147,3355.609248 1214.158961,3325.815127 1190.747963,3260.016928 1181.686904,3206.652031 1270.590946,3167.920943 1253.829950,3146.008665 1147.010396,3182.394137 1119.969432,3092.279842 1050.162980,3122.664739 1037.740794,3188.530143 1009.705340,3203.410987 976.866543,3209.403853 907.643438,3230.293257 919.438873,3150.784675 859.329537,3092.779118 897.124417,3034.567970 884.468866,2975.864851 933.051715,2918.253249 905.469570,2860.175632 964.812314,2829.799294 994.564642,2774.580068 1069.381515,2810.116595 1108.387549,2780.375964"/>
    <poly id="563544479" type="leisure.park" color="207,245,201" fill="1" layer="-2.00" shape="846.116703,2385.248908 932.621186,2426.175019 971.565294,2357.216971 960.902648,2352.168698 905.483962,2349.959437 880.231301,2364.879205 846.116703,2385.248908"/>
    <poly id="564014379" type="natural.wood" color="140,196,107" fill="0" layer="-4.00" shape="1586.963406,3016.766929 1529.949759,2947.114285"/>
    <poly id="564014380" type="landuse.orchard" color="194,194,130" fill="0" layer="-3.00" shape="1485.687313,2910.093150 1529.949759,2947.114285"/>
    <poly id="564014381" type="landuse.orchard" color="194,194,130" fill="0" layer="-3.00" shape="1108.387549,2780.375964 1173.820950,2828.224262 1178.655284,2859.653424 1142.268615,2885.228369 1209.967042,3001.359992 1271.706577,3121.652386 1485.687313,2910.093150"/>
    <poly id="564014382" type="natural.scrub" color="140,196,107" fill="0" layer="-4.00" shape="1108.387549,2780.375964 1178.837626,2730.934616 1303.391714,2826.200410 1369.725845,2849.801673 1417.552183,2881.747997 1485.687313,2910.093150"/>
    <poly id="564014384" type="building.yes" color="255,230,230" fill="1" layer="-1.00" shape="907.267058,2392.736934 924.080930,2395.261747 928.501648,2366.194400 911.687774,2363.669583 907.267058,2392.736934"/>
    <poly id="564014384#1" type="leisure.pitch" color="207,245,201" fill="1" layer="-2.00" shape="907.267058,2392.736934 924.080930,2395.261747 928.501648,2366.194400 911.687774,2363.669583 907.267058,2392.736934"/>
    <poly id="564014384#2" type="sport.basketball" color="79,230,125" fill="1" layer="-2.00" shape="907.267058,2392.736934 924.080930,2395.261747 928.501648,2366.194400 911.687774,2363.669583 907.267058,2392.736934"/>
    <poly id="574916919" type="building.yes" color="255,230,230" fill="1" layer="-1.00" shape="678.874039,2904.332525 693.422288,2874.028874 745.287183,2898.597680 730.727806,2928.901339 678.874039,2904.332525"/>
    <poly id="588248533" type="amenity.parking" color="184,184,179" fill="1" layer="-1.00" shape="929.636127,2836.006705 948.235419,2799.222002 963.754448,2805.821444 949.771674,2828.997497 929.636127,2836.006705"/>
    <poly id="589807732" type="landuse.industrial" color="209,209,204" fill="1" layer="-3.00" shape="1081.691371,2141.591447 1161.689416,2131.947704 1181.726315,1988.363594 1159.980927,1854.351889 819.647812,1879.895582 805.842314,1902.750328 784.867729,1937.470060 648.189310,2163.746859 846.472502,2176.434333 880.087634,2270.088826 1015.063559,2276.952181 1030.499503,2227.104664 898.966263,2144.300506 885.128498,2036.500045 1044.480637,2029.906308 1073.360811,2026.090049 1081.691371,2141.591447"/>
    <poly id="589807733" type="landuse.industrial" color="209,209,204" fill="1" layer="-3.00" shape="580.677561,1825.775278 636.605586,1712.964357 764.537119,1786.281044 726.453965,1863.459455 805.842314,1902.750328 784.867729,1937.470060 580.677561,1825.775278"/>
    <poly id="589807734" type="building.industrial" color="255,230,230" fill="1" layer="-1.00" shape="1007.481810,1996.036172 1121.241806,1985.731982 1116.077374,1926.417335 1001.782998,1936.722474 1007.481810,1996.036172"/>
    <poly id="589807735" type="building.industrial" color="255,230,230" fill="1" layer="-1.00" shape="1001.782998,1936.722474 996.635075,1880.307012 1110.918346,1869.990873 1116.077374,1926.417335 1001.782998,1936.722474"/>
    <poly id="589807736" type="building.industrial" color="255,230,230" fill="1" layer="-1.00" shape="1131.303607,1984.960746 1122.962329,1869.592193 1156.387002,1867.206086 1164.717120,1982.574633 1131.303607,1984.960746"/>
    <poly id="589807737" type="building.industrial" color="255,230,230" fill="1" layer="-1.00" shape="1041.575044,2023.847611 1040.125971,2004.905486 1121.655678,1998.744705 1123.104740,2017.686818 1111.851976,2018.537738 1041.575044,2023.847611"/>
    <poly id="589807738" type="building.industrial" color="255,230,230" fill="1" layer="-1.00" shape="965.760628,1978.784761 994.999503,1976.284672 987.138184,1885.547822 957.899290,1888.047893 965.760628,1978.784761"/>
    <poly id="589807739" type="building.industrial" color="255,230,230" fill="1" layer="-1.00" shape="886.301236,1996.815482 942.175839,1992.727530 934.970342,1895.526932 879.084568,1899.614866 886.301236,1996.815482"/>
    <poly id="589807740" type="building.industrial" color="255,230,230" fill="1" layer="-1.00" shape="828.986447,1968.848169 824.479368,1909.897349 865.739612,1906.777269 870.257805,1965.728051 828.986447,1968.848169"/>
    <poly id="589807741" type="building.industrial" color="255,230,230" fill="1" layer="-1.00" shape="592.507032,1823.739203 615.446019,1779.842087 703.640245,1825.313485 685.271327,1860.471020 680.701270,1869.210568 592.507032,1823.739203"/>
    <poly id="589807742" type="building.industrial" color="255,230,230" fill="1" layer="-1.00" shape="613.983656,1771.689218 638.179029,1726.959833 724.359358,1772.966191 700.163999,1817.695543 613.983656,1771.689218"/>
    <poly id="589807743" type="building.industrial" color="255,230,230" fill="1" layer="-1.00" shape="783.137256,2042.156938 779.704821,1980.470811 851.932502,1976.507242 855.364906,2038.193336 799.354803,2041.263527 783.137256,2042.156938"/>
    <poly id="589807744" type="building.industrial" color="255,230,230" fill="1" layer="-1.00" shape="789.230510,2062.241284 795.596445,2150.867453 835.343253,2148.048894 828.977344,2059.422750 800.861822,2061.411761 789.230510,2062.241284"/>
    <poly id="589807745" type="building.industrial" color="255,230,230" fill="1" layer="-1.00" shape="883.661678,2264.504929 936.219637,2266.785956 937.966453,2242.459819 911.688550,2244.876988 909.914049,2254.374856 891.998460,2252.040205 885.433966,2253.823010 883.661678,2264.504929"/>
    <poly id="599573365" type="building.yes" color="255,230,230" fill="1" layer="-1.00" shape="1073.567783,2119.164954 1069.109967,2050.797066 903.642882,2061.441272 908.100798,2129.820306 1073.567783,2119.164954"/>
    <poly id="599573365#1" type="man_made.works" color="255,230,230" fill="1" layer="-1.00" shape="1073.567783,2119.164954 1069.109967,2050.797066 903.642882,2061.441272 908.100798,2129.820306 1073.567783,2119.164954"/>
    <poly id="599573366" type="building.yes" color="255,230,230" fill="1" layer="-1.00" shape="1212.135580,1926.968703 1209.694661,1865.579698 1213.159783,1867.244193 1276.437896,1863.629531 1279.267145,1924.342764 1212.135580,1926.968703"/>
    <poly id="599573366#1" type="man_made.works" color="255,230,230" fill="1" layer="-1.00" shape="1212.135580,1926.968703 1209.694661,1865.579698 1213.159783,1867.244193 1276.437896,1863.629531 1279.267145,1924.342764 1212.135580,1926.968703"/>
    <poly id="599573367" type="building.yes" color="255,230,230" fill="1" layer="-1.00" shape="1235.789570,1986.027541 1231.444860,1948.422685 1279.390868,1942.955349 1283.735564,1980.560193 1235.789570,1986.027541"/>
    <poly id="599573367#1" type="man_made.works" color="255,230,230" fill="1" layer="-1.00" shape="1235.789570,1986.027541 1231.444860,1948.422685 1279.390868,1942.955349 1283.735564,1980.560193 1235.789570,1986.027541"/>
    <poly id="599573368" type="building.yes" color="255,230,230" fill="1" layer="-1.00" shape="1213.159783,1867.244193 1205.199042,1722.993022 1269.724174,1719.475697 1276.437896,1863.629531 1213.159783,1867.244193"/>
    <poly id="599573368#1" type="man_made.works" color="255,230,230" fill="1" layer="-1.00" shape="1213.159783,1867.244193 1205.199042,1722.993022 1269.724174,1719.475697 1276.437896,1863.629531 1213.159783,1867.244193"/>
    <poly id="599573369" type="building.yes" color="255,230,230" fill="1" layer="-1.00" shape="1279.267145,1924.342764 1314.071500,1921.622132 1299.897991,1716.907591 1269.724174,1719.475697 1276.437896,1863.629531 1279.267145,1924.342764"/>
    <poly id="599573369#1" type="man_made.works" color="255,230,230" fill="1" layer="-1.00" shape="1279.267145,1924.342764 1314.071500,1921.622132 1299.897991,1716.907591 1269.724174,1719.475697 1276.437896,1863.629531 1279.267145,1924.342764"/>
    <poly id="599573371" type="building.yes" color="255,230,230" fill="1" layer="-1.00" shape="578.248759,1693.409017 593.068195,1700.873020 609.705372,1668.285999 594.897071,1660.821971 578.248759,1693.409017"/>
    <poly id="599573372" type="building.yes" color="255,230,230" fill="1" layer="-1.00" shape="528.166385,1759.234149 599.078490,1622.747342 546.262533,1595.712126 509.490423,1665.628951 475.383758,1732.176801 528.166385,1759.234149"/>
    <poly id="599573372#1" type="man_made.works" color="255,230,230" fill="1" layer="-1.00" shape="528.166385,1759.234149 599.078490,1622.747342 546.262533,1595.712126 509.490423,1665.628951 475.383758,1732.176801 528.166385,1759.234149"/>
    <poly id="599573373" type="building.yes" color="255,230,230" fill="1" layer="-1.00" shape="436.908692,1670.932152 471.083838,1688.817365 488.932039,1654.966526 525.715265,1585.038602 491.685756,1567.639989 436.908692,1670.932152"/>
    <poly id="599573373#1" type="man_made.works" color="255,230,230" fill="1" layer="-1.00" shape="436.908692,1670.932152 471.083838,1688.817365 488.932039,1654.966526 525.715265,1585.038602 491.685756,1567.639989 436.908692,1670.932152"/>
    <poly id="599573374" type="building.yes" color="255,230,230" fill="1" layer="-1.00" shape="546.262533,1595.712126 525.715265,1585.038602 488.932039,1654.966526 509.490423,1665.628951 546.262533,1595.712126"/>
    <poly id="599573374#1" type="man_made.works" color="255,230,230" fill="1" layer="-1.00" shape="546.262533,1595.712126 525.715265,1585.038602 488.932039,1654.966526 509.490423,1665.628951 546.262533,1595.712126"/>
    <poly id="599573375" type="building.yes" color="255,230,230" fill="1" layer="-1.00" shape="414.874538,1716.531801 431.147688,1685.738081 464.888152,1703.336386 448.614985,1734.119031 414.874538,1716.531801"/>
    <poly id="599573375#1" type="man_made.works" color="255,230,230" fill="1" layer="-1.00" shape="414.874538,1716.531801 431.147688,1685.738081 464.888152,1703.336386 448.614985,1734.119031 414.874538,1716.531801"/>
    <poly id="599573376" type="landuse.industrial" color="209,209,204" fill="1" layer="-3.00" shape="27.738422,1967.301809 180.249727,1712.775830 332.302909,1600.139208 430.116289,1562.498477 496.805884,1549.415891 552.647344,1557.235001 646.266855,1598.834411 653.554003,1620.421534 448.364186,2011.166691 402.041364,2057.354016 351.327284,2076.891697 287.544693,2090.699542 236.757504,2077.105908 27.738422,1967.301809"/>
    <poly id="599573377" type="building.residential" color="255,230,230" fill="1" layer="-1.00" shape="1113.635381,2228.675806 1149.471490,2152.475591 1129.060192,2142.996989 1093.224100,2219.208283 1113.635381,2228.675806"/>
    <poly id="599573378" type="building.residential" color="255,230,230" fill="1" layer="-1.00" shape="1110.874127,2168.714858 1109.518976,2146.419601 1057.138187,2149.582568 1058.504478,2171.877811 1110.874127,2168.714858"/>
    <poly id="599576095" type="building.yes" color="255,230,230" fill="1" layer="-1.00" shape="1092.654713,2128.812015 1087.641507,2073.027100 1098.993733,2071.788682 1096.490704,2042.822826 1153.575773,2037.227716 1156.093561,2074.116712 1147.904150,2123.839979 1092.654713,2128.812015"/>
    <poly id="603462251" type="building.yes" color="255,230,230" fill="1" layer="-1.00" shape="1032.786468,2748.116388 1041.515980,2731.401612 978.748239,2698.265946 967.766828,2719.189989 1026.856355,2749.809496 1032.786468,2748.116388"/>
    <poly id="603462253" type="building.yes" color="255,230,230" fill="1" layer="-1.00" shape="962.671718,2714.994473 999.823512,2640.152648 978.899316,2630.232452 945.832999,2699.168517 947.552438,2707.863108 962.671718,2714.994473"/>
    <poly id="603462254" type="building.yes" color="255,230,230" fill="1" layer="-1.00" shape="983.131875,2625.587922 1002.497366,2635.378243 1038.935986,2560.106236 1022.388445,2551.162711 1017.448538,2552.577313 983.131875,2625.587922"/>
    <poly id="603462255" type="building.yes" color="255,230,230" fill="1" layer="-1.00" shape="1027.749135,2542.598748 1043.148525,2550.703411 1069.043575,2498.324373 1049.532613,2488.124863 1024.621986,2537.126969 1027.749135,2542.598748"/>
    <poly id="603462256" type="building.yes" color="255,230,230" fill="1" layer="-1.00" shape="1051.952986,2484.712044 1071.272308,2493.628268 1103.370760,2424.926538 1084.051461,2416.021368 1051.952986,2484.712044"/>
    <poly id="603467057" type="building.yes" color="255,230,230" fill="1" layer="-1.00" shape="463.109832,1316.728577 469.236248,1342.677883 542.753497,1325.576840 536.638231,1299.627524 463.109832,1316.728577"/>
    <poly id="603467058" type="building.yes" color="255,230,230" fill="1" layer="-1.00" shape="543.108437,1295.000976 622.267279,1288.612391 624.522624,1316.118112 545.363818,1322.517777 543.108437,1295.000976"/>
    <poly id="603467059" type="building.yes" color="255,230,230" fill="1" layer="-1.00" shape="628.321186,1287.594120 628.817208,1314.848599 702.052100,1313.539271 701.556070,1286.273742 628.321186,1287.594120"/>
    <poly id="652023896" type="man_made.water_works" color="255,230,230" fill="1" layer="-1.00" shape="1849.199541,1554.435815 1885.976828,1583.127649 1878.545910,1603.900945 1846.383035,1644.295628 1835.113964,1690.295105 1821.447379,1722.057312 1813.987835,1727.404904 1744.463638,1748.293603 1712.247250,1765.848580 1665.537668,1855.513468 1613.303619,1865.691607 1551.241622,1888.646993 1523.437325,1872.376581 1526.970471,1844.793878 1438.410467,1745.896994 1513.536473,1684.363850 1519.188349,1670.709133 1510.208467,1660.644827 1511.970927,1644.629246 1530.145695,1624.721172 1570.816430,1657.865288 1572.319678,1664.092572 1578.884711,1662.597544 1612.348465,1675.283213 1641.911879,1673.745444 1681.592150,1659.142246 1715.006837,1645.435974 1759.137408,1611.536780 1808.341809,1582.386511 1849.199541,1554.435815"/>
    <poly id="652023899" type="building.yes" color="255,230,230" fill="1" layer="-1.00" shape="1640.154924,1692.726647 1675.081118,1689.696090 1677.554829,1738.923458 1673.689775,1743.677892 1643.539706,1746.998363 1640.154924,1692.726647"/>
    <poly id="652023899#1" type="man_made.reservoir_covered" color="255,230,230" fill="1" layer="-1.00" shape="1640.154924,1692.726647 1675.081118,1689.696090 1677.554829,1738.923458 1673.689775,1743.677892 1643.539706,1746.998363 1640.154924,1692.726647"/>
    <poly id="652023900" type="building.yes" color="255,230,230" fill="1" layer="-1.00" shape="1615.518146,1691.687984 1608.778919,1689.299220 1601.698882,1689.212788 1594.968190,1691.416338 1589.309940,1695.654014 1585.335560,1701.482043 1583.478021,1708.268867 1583.925226,1715.294855 1586.631229,1721.796548 1591.316436,1727.077317 1597.467733,1730.573758 1604.416490,1731.899808 1611.505661,1730.912833 1617.867087,1727.680844 1622.822383,1722.559207 1625.827139,1716.113295 1626.548717,1709.051939 1624.921725,1702.127738 1621.092335,1696.126097 1615.518146,1691.687984"/>
    <poly id="652023900#1" type="man_made.reservoir_covered" color="255,230,230" fill="1" layer="-1.00" shape="1615.518146,1691.687984 1608.778919,1689.299220 1601.698882,1689.212788 1594.968190,1691.416338 1589.309940,1695.654014 1585.335560,1701.482043 1583.478021,1708.268867 1583.925226,1715.294855 1586.631229,1721.796548 1591.316436,1727.077317 1597.467733,1730.573758 1604.416490,1731.899808 1611.505661,1730.912833 1617.867087,1727.680844 1622.822383,1722.559207 1625.827139,1716.113295 1626.548717,1709.051939 1624.921725,1702.127738 1621.092335,1696.126097 1615.518146,1691.687984"/>
    <poly id="652023901" type="building.yes" color="255,230,230" fill="1" layer="-1.00" shape="1637.064054,1778.603412 1631.413773,1781.136932 1626.957850,1785.416636 1624.395676,1790.412101 1623.504286,1795.946685 1624.382877,1801.489045 1626.952479,1806.474967 1630.933930,1810.440205 1635.970271,1812.987052 1641.537833,1813.861967 1647.113275,1812.988463 1652.140150,1810.445036 1656.451091,1806.021746 1659.012112,1800.406597 1659.490494,1794.264160 1657.854198,1788.324840 1654.293763,1783.285431 1649.222175,1779.742722 1643.241336,1778.116095 1637.064054,1778.603412"/>
    <poly id="652023901#1" type="man_made.reservoir_covered" color="255,230,230" fill="1" layer="-1.00" shape="1637.064054,1778.603412 1631.413773,1781.136932 1626.957850,1785.416636 1624.395676,1790.412101 1623.504286,1795.946685 1624.382877,1801.489045 1626.952479,1806.474967 1630.933930,1810.440205 1635.970271,1812.987052 1641.537833,1813.861967 1647.113275,1812.988463 1652.140150,1810.445036 1656.451091,1806.021746 1659.012112,1800.406597 1659.490494,1794.264160 1657.854198,1788.324840 1654.293763,1783.285431 1649.222175,1779.742722 1643.241336,1778.116095 1637.064054,1778.603412"/>
    <poly id="652068451" type="amenity.parking" color="184,184,179" fill="1" layer="-1.00" shape="1186.697223,1519.282287 1249.698739,1516.498235 1281.650553,1518.220427 1268.945565,1594.167079 1178.149177,1579.806480 1186.697223,1519.282287"/>
    <poly id="653280653" type="building.yes" color="255,230,230" fill="1" layer="-1.00" shape="670.252964,3097.648445 651.469476,3089.561269 681.498648,3021.792506 702.364387,3030.196702 670.252964,3097.648445"/>
    <poly id="653280654" type="building.yes" color="255,230,230" fill="1" layer="-1.00" shape="703.635877,3025.568759 733.997174,2962.734829 732.058533,2955.888651 717.129047,2949.066813 683.248806,3017.163665 703.635877,3025.568759"/>
    <poly id="653280655" type="landuse.grass" color="194,194,130" fill="1" layer="-3.00" shape="698.081254,2972.208173 710.712924,2946.843516 694.813472,2939.226748 690.010782,2942.577660 679.299548,2965.072645 698.081254,2972.208173"/>
    <poly id="653280660" type="leisure.pitch" color="207,245,201" fill="1" layer="-2.00" shape="466.766314,2903.911189 482.253486,2893.480159 498.215934,2916.865785 482.728767,2927.296815 466.766314,2903.911189"/>