<?xml version="1.0" encoding="UTF-8"?>

<!-- generated on Selasa 03 Nov 2020 02:24:43  +08 by Eclipse SUMO netedit Version v1_6_0+1709-fbf258c
<configuration xmlns:xsi="http://www.w3.org/2001/XMLSchema-instance" xsi:noNamespaceSchemaLocation="http://sumo.dlr.de/xsd/netconvertConfiguration.xsd">

    <input>
        <sumo-net-file value="/home/ubuntu/Desktop/George_tmp2/mqttSumo_ServerCFT_res_harvest/DataFixed/BB5B.net.xml"/>
    </input>

    <output>
        <output-file value="/home/ubuntu/Desktop/George_tmp2/mqttSumo_ServerCFT_res_harvest/DataFixed/BB5B.net.xml"/>
    </output>

    <processing>
        <geometry.min-radius.fix.railways value="false"/>
        <geometry.max-grade.fix value="false"/>
        <offset.disable-normalization value="true"/>
        <lefthand value="true"/>
    </processing>

    <junctions>
        <no-turnarounds value="true"/>
        <junctions.corner-detail value="5"/>
        <junctions.limit-turn-speed value="5.5"/>
        <rectangular-lane-cut value="false"/>
    </junctions>

    <pedestrian>
        <walkingareas value="false"/>
    </pedestrian>

    <report>
        <aggregate-warnings value="5"/>
    </report>

</configuration>
-->

<net version="1.6" junctionCornerDetail="5" lefthand="true" limitTurnSpeed="5.50" xmlns:xsi="http://www.w3.org/2001/XMLSchema-instance" xsi:noNamespaceSchemaLocation="http://sumo.dlr.de/xsd/net_file.xsd">

    <location netOffset="-194251.59,-245131.17" convBoundary="750.12,1239.71,1360.03,2993.78" origBoundary="102.235144,2.187648,102.278774,2.267698" projParameter="+proj=utm +zone=48 +ellps=WGS84 +datum=WGS84 +units=m +no_defs"/>

    <type id="highway.bridleway" priority="1" numLanes="1" speed="2.78" allow="pedestrian" oneway="1" width="2.00"/>
    <type id="highway.bus_guideway" priority="1" numLanes="1" speed="27.78" allow="bus" oneway="1"/>
    <type id="highway.cycleway" priority="1" numLanes="1" speed="8.33" allow="bicycle" oneway="0" width="1.00"/>
    <type id="highway.footway" priority="1" numLanes="1" speed="2.78" allow="pedestrian" oneway="1" width="2.00"/>
    <type id="highway.ford" priority="1" numLanes="1" speed="2.78" allow="army" oneway="0"/>
    <type id="highway.living_street" priority="3" numLanes="1" speed="2.78" disallow="tram rail_urban rail rail_electric ship" oneway="0"/>
    <type id="highway.motorway" priority="13" numLanes="2" speed="44.44" allow="private emergency authority army vip passenger hov taxi bus coach delivery truck trailer motorcycle evehicle custom1 custom2" oneway="1"/>
    <type id="highway.motorway_link" priority="12" numLanes="1" speed="22.22" allow="private emergency authority army vip passenger hov taxi bus coach delivery truck trailer motorcycle evehicle custom1 custom2" oneway="1"/>
    <type id="highway.path" priority="1" numLanes="1" speed="2.78" allow="pedestrian bicycle" oneway="1" width="2.00"/>
    <type id="highway.pedestrian" priority="1" numLanes="1" speed="2.78" allow="pedestrian" oneway="1" width="2.00"/>
    <type id="highway.primary" priority="9" numLanes="2" speed="27.78" disallow="tram rail_urban rail rail_electric ship" oneway="0"/>
    <type id="highway.primary_link" priority="8" numLanes="1" speed="22.22" disallow="tram rail_urban rail rail_electric ship" oneway="0"/>
    <type id="highway.raceway" priority="14" numLanes="2" speed="83.33" allow="vip" oneway="0"/>
    <type id="highway.residential" priority="4" numLanes="1" speed="13.89" disallow="tram rail_urban rail rail_electric ship" oneway="0"/>
    <type id="highway.secondary" priority="7" numLanes="2" speed="27.78" disallow="tram rail_urban rail rail_electric ship" oneway="0"/>
    <type id="highway.secondary_link" priority="6" numLanes="1" speed="22.22" disallow="tram rail_urban rail rail_electric ship" oneway="0"/>
    <type id="highway.service" priority="2" numLanes="1" speed="5.56" allow="pedestrian delivery bicycle" oneway="0"/>
    <type id="highway.stairs" priority="1" numLanes="1" speed="1.39" allow="pedestrian" oneway="1" width="2.00"/>
    <type id="highway.step" priority="1" numLanes="1" speed="1.39" allow="pedestrian" oneway="1" width="2.00"/>
    <type id="highway.steps" priority="1" numLanes="1" speed="1.39" allow="pedestrian" oneway="1" width="2.00"/>
    <type id="highway.tertiary" priority="6" numLanes="1" speed="22.22" disallow="tram rail_urban rail rail_electric ship" oneway="0"/>
    <type id="highway.tertiary_link" priority="5" numLanes="1" speed="22.22" disallow="tram rail_urban rail rail_electric ship" oneway="0"/>
    <type id="highway.track" priority="1" numLanes="1" speed="5.56" disallow="tram rail_urban rail rail_electric ship" oneway="0"/>
    <type id="highway.trunk" priority="11" numLanes="2" speed="27.78" disallow="pedestrian bicycle tram rail_urban rail rail_electric ship" oneway="0"/>
    <type id="highway.trunk_link" priority="10" numLanes="1" speed="22.22" disallow="pedestrian bicycle tram rail_urban rail rail_electric ship" oneway="0"/>
    <type id="highway.unclassified" priority="5" numLanes="1" speed="13.89" disallow="tram rail_urban rail rail_electric ship" oneway="0"/>
    <type id="highway.unsurfaced" priority="1" numLanes="1" speed="8.33" disallow="tram rail_urban rail rail_electric ship" oneway="0"/>
    <type id="railway.light_rail" priority="15" numLanes="1" speed="27.78" allow="rail_urban" oneway="1"/>
    <type id="railway.preserved" priority="15" numLanes="1" speed="27.78" allow="rail" oneway="1"/>
    <type id="railway.rail" priority="15" numLanes="1" speed="83.33" allow="rail rail_electric" oneway="1"/>
    <type id="railway.subway" priority="15" numLanes="1" speed="27.78" allow="rail_urban" oneway="1"/>
    <type id="railway.tram" priority="15" numLanes="1" speed="13.89" allow="tram" oneway="1"/>

    <edge id=":Bridge_0" function="internal">
        <lane id=":Bridge_0_0" index="0" speed="19.44" length="8.55" shape="1119.73,2256.78 1119.03,2259.19 1119.29,2261.07 1119.55,2262.95 1118.86,2265.37"/>
        <lane id=":Bridge_0_1" index="1" speed="19.44" length="8.55" shape="1122.56,2258.26 1121.86,2260.67 1122.13,2262.55 1122.39,2264.43 1121.70,2266.85"/>
        <lane id=":Bridge_0_2" index="2" speed="19.44" length="8.55" shape="1125.40,2259.74 1121.70,2266.85"/>
    </edge>
    <edge id=":Bridge_3" function="internal">
        <lane id=":Bridge_3_0" index="0" speed="19.44" length="7.98" shape="1130.24,2271.27 1133.90,2264.19"/>
        <lane id=":Bridge_3_1" index="1" speed="19.44" length="7.98" shape="1127.40,2269.80 1131.07,2262.71"/>
        <lane id=":Bridge_3_2" index="2" speed="19.44" length="7.98" shape="1124.56,2268.33 1128.23,2261.23"/>
    </edge>
    <edge id=":FM_Junc_0" function="internal">
        <lane id=":FM_Junc_0_0" index="0" speed="6.47" length="9.03" shape="1001.87,2534.82 999.82,2533.42 998.72,2531.71 998.57,2529.68 999.38,2527.33"/>
    </edge>
    <edge id=":FM_Junc_1" function="internal">
        <lane id=":FM_Junc_1_0" index="0" speed="7.35" length="11.78" shape="990.03,2538.82 991.61,2536.86 993.88,2536.03 996.83,2536.30 1000.46,2537.69"/>
    </edge>
    <edge id=":FM_Junc_2" function="internal">
        <lane id=":FM_Junc_2_0" index="0" speed="19.44" length="14.50" shape="990.03,2538.82 996.53,2525.88"/>
        <lane id=":FM_Junc_2_1" index="1" speed="19.44" length="14.50" shape="987.16,2537.41 993.68,2524.42"/>
    </edge>
    <edge id=":HLW_Junc_0" function="internal">
        <lane id=":HLW_Junc_0_0" index="0" speed="19.44" length="0.27" shape="823.10,2669.92 822.86,2669.79"/>
        <lane id=":HLW_Junc_0_1" index="1" speed="19.44" length="0.27" shape="821.60,2672.75 821.35,2672.61"/>
    </edge>
    <edge id=":HLW_Junc_2" function="internal">
        <lane id=":HLW_Junc_2_0" index="0" speed="19.44" length="0.32" shape="818.31,2678.25 818.61,2678.40"/>
        <lane id=":HLW_Junc_2_1" index="1" speed="19.44" length="0.32" shape="819.83,2675.43 820.10,2675.57"/>
    </edge>
    <edge id=":HL_Junc_0" function="internal">
        <lane id=":HL_Junc_0_0" index="0" speed="7.33" length="11.66" shape="1011.22,2473.25 1009.61,2475.16 1007.35,2475.96 1004.44,2475.65 1000.87,2474.23"/>
    </edge>
    <edge id=":HL_Junc_1" function="internal">
        <lane id=":HL_Junc_1_0" index="0" speed="19.44" length="14.21" shape="1011.22,2473.25 1004.81,2485.98"/>
        <lane id=":HL_Junc_1_1" index="1" speed="19.44" length="14.21" shape="1014.06,2474.72 1007.69,2487.38"/>
    </edge>
    <edge id=":HL_Junc_3" function="internal">
        <lane id=":HL_Junc_3_0" index="0" speed="6.52" length="8.97" shape="999.43,2477.09 1001.44,2478.50 1002.53,2480.21 1002.69,2482.24 1001.94,2484.57"/>
    </edge>
    <edge id=":HL_Junc_4" function="internal">
        <lane id=":HL_Junc_4_0" index="0" speed="7.34" length="11.64" shape="999.43,2477.09 1002.69,2479.13 1004.67,2481.29 1005.38,2483.57 1004.81,2485.98"/>
    </edge>
    <edge id=":INFMain_Junc_0" function="internal">
        <lane id=":INFMain_Junc_0_0" index="0" speed="19.44" length="13.93" shape="1153.93,2188.30 1152.88,2192.18 1151.99,2194.79 1150.83,2197.30 1148.98,2200.87"/>
        <lane id=":INFMain_Junc_0_1" index="1" speed="19.44" length="13.93" shape="1157.03,2189.12 1155.92,2193.21 1154.98,2195.96 1153.77,2198.60 1151.81,2202.36"/>
    </edge>
    <edge id=":INFMain_Junc_2" function="internal">
        <lane id=":INFMain_Junc_2_0" index="0" disallow="tram rail_urban rail rail_electric rail_fast ship" speed="8.96" length="18.45" shape="1160.12,2189.94 1159.98,2193.92 1161.82,2197.20 1165.62,2199.80 1171.41,2201.72"/>
    </edge>
    <edge id=":INFMain_Junc_3" function="internal">
        <lane id=":INFMain_Junc_3_0" index="0" disallow="tram rail_urban rail rail_electric rail_fast ship" speed="10.25" length="19.67" shape="1172.08,2198.83 1166.08,2197.91 1161.18,2198.43 1157.37,2200.41 1154.65,2203.84"/>
    </edge>
    <edge id=":INFMain_Junc_4" function="internal">
        <lane id=":INFMain_Junc_4_0" index="0" disallow="tram rail_urban rail rail_electric rail_fast ship" speed="7.17" length="9.01" shape="1163.15,2208.29 1164.54,2206.34 1166.25,2205.11 1168.30,2204.61 1170.68,2204.84"/>
    </edge>
    <edge id=":INFMain_Junc_5" function="internal">
        <lane id=":INFMain_Junc_5_0" index="0" speed="19.44" length="16.07" shape="1160.32,2206.81 1162.56,2202.48 1163.96,2199.45 1165.04,2196.28 1166.33,2191.59"/>
        <lane id=":INFMain_Junc_5_1" index="1" speed="19.44" length="16.07" shape="1157.48,2205.33 1159.63,2201.19 1160.97,2198.28 1162.01,2195.26 1163.24,2190.77"/>
    </edge>
    <edge id=":INFN_Junc_0" function="internal">
        <lane id=":INFN_Junc_0_0" index="0" speed="19.44" length="7.43" shape="1169.61,2120.01 1168.69,2127.12"/>
        <lane id=":INFN_Junc_0_1" index="1" speed="19.44" length="7.43" shape="1172.80,2120.28 1171.85,2127.65"/>
        <lane id=":INFN_Junc_0_2" index="2" speed="19.44" length="7.43" shape="1175.99,2120.56 1175.01,2128.18"/>
    </edge>
    <edge id=":INFN_Junc_3" function="internal">
        <lane id=":INFN_Junc_3_0" index="0" speed="19.44" length="8.52" shape="1184.44,2129.76 1184.39,2127.18 1183.54,2125.45 1182.63,2123.71 1182.35,2121.11"/>
        <lane id=":INFN_Junc_3_1" index="1" speed="19.44" length="8.52" shape="1181.28,2129.23 1181.70,2126.83 1181.95,2125.19 1182.14,2123.53 1182.35,2121.11"/>
        <lane id=":INFN_Junc_3_2" index="2" speed="19.44" length="8.52" shape="1181.28,2129.23 1181.22,2126.73 1180.37,2125.05 1179.45,2123.37 1179.17,2120.83"/>
        <lane id=":INFN_Junc_3_3" index="3" speed="19.44" length="8.52" shape="1178.13,2128.70 1178.53,2126.38 1178.78,2124.78 1178.96,2123.18 1179.17,2120.83"/>
    </edge>
    <edge id=":INFS_Junc_0" function="internal">
        <lane id=":INFS_Junc_0_0" index="0" speed="19.44" length="8.39" shape="1156.30,1576.95 1156.55,1579.50 1157.53,1581.15 1158.61,1582.80 1159.16,1585.37"/>
        <lane id=":INFS_Junc_0_1" index="1" speed="19.44" length="8.39" shape="1159.48,1577.30 1159.25,1579.68 1159.14,1581.32 1159.12,1582.97 1159.16,1585.37"/>
        <lane id=":INFS_Junc_0_2" index="2" speed="19.44" length="8.39" shape="1159.48,1577.30 1159.74,1579.73 1160.73,1581.29 1161.81,1582.85 1162.36,1585.30"/>
        <lane id=":INFS_Junc_0_3" index="3" speed="19.44" length="8.39" shape="1162.67,1577.64 1162.44,1579.91 1162.34,1581.46 1162.32,1583.02 1162.36,1585.30"/>
    </edge>
    <edge id=":INFS_Junc_4" function="internal">
        <lane id=":INFS_Junc_4_0" index="0" speed="19.44" length="6.84" shape="1171.92,1585.09 1171.91,1583.19 1171.93,1581.88 1172.03,1580.58 1172.24,1578.68"/>
        <lane id=":INFS_Junc_4_1" index="1" speed="19.44" length="6.84" shape="1168.72,1585.16 1168.71,1583.13 1168.73,1581.74 1168.84,1580.36 1169.05,1578.34"/>
        <lane id=":INFS_Junc_4_2" index="2" speed="19.44" length="6.84" shape="1165.52,1585.23 1165.50,1583.08 1165.53,1581.60 1165.65,1580.13 1165.87,1577.99"/>
    </edge>
    <edge id=":INFS_OffRamp_0" function="internal">
        <lane id=":INFS_OffRamp_0_0" index="0" disallow="tram rail_urban rail rail_electric rail_fast ship" speed="19.44" length="15.40" shape="1207.60,2207.65 1204.00,2206.54 1200.56,2204.76 1197.22,2202.69 1193.94,2200.71"/>
    </edge>
    <edge id=":INFS_OffRamp_1" function="internal">
        <lane id=":INFS_OffRamp_1_0" index="0" disallow="tram rail_urban rail rail_electric rail_fast ship" speed="19.44" length="15.40" shape="1207.60,2207.65 1192.63,2204.02"/>
    </edge>
    <edge id=":INFS_OnRamp_0" function="internal">
        <lane id=":INFS_OnRamp_0_0" index="0" speed="19.44" length="11.43" shape="1175.16,2178.95 1175.17,2175.86 1175.39,2173.51 1175.88,2171.07 1176.66,2167.67"/>
    </edge>
    <edge id=":INFS_OnRamp_1" function="internal">
        <lane id=":INFS_OnRamp_1_0" index="0" speed="19.44" length="8.16" shape="1170.81,2174.71 1173.54,2166.96"/>
        <lane id=":INFS_OnRamp_1_1" index="1" speed="19.44" length="8.16" shape="1167.71,2173.89 1170.42,2166.25"/>
    </edge>
    <edge id=":INF_Junc_0" function="internal">
        <lane id=":INF_Junc_0_0" index="0" speed="6.48" length="9.03" shape="1160.86,1990.01 1163.34,1990.15 1165.17,1991.05 1166.35,1992.71 1166.88,1995.13"/>
    </edge>
    <edge id=":INF_Junc_1" function="internal">
        <lane id=":INF_Junc_1_0" index="0" speed="7.30" length="11.75" shape="1160.86,1990.01 1164.73,1990.03 1167.56,1990.85 1169.34,1992.47 1170.07,1994.89"/>
    </edge>
    <edge id=":INF_Junc_2" function="internal">
        <lane id=":INF_Junc_2_0" index="0" speed="7.48" length="11.89" shape="1169.19,1980.53 1168.75,1982.99 1167.17,1984.87 1164.45,1986.14 1160.58,1986.83"/>
    </edge>
    <edge id=":INF_Junc_3" function="internal">
        <lane id=":INF_Junc_3_0" index="0" speed="19.44" length="14.35" shape="1169.19,1980.53 1170.07,1994.89"/>
        <lane id=":INF_Junc_3_1" index="1" speed="19.44" length="14.35" shape="1172.39,1980.38 1173.26,1994.65"/>
    </edge>
    <edge id=":PBB_Junc_0" function="internal">
        <lane id=":PBB_Junc_0_0" index="0" speed="6.54" length="9.07" shape="895.15,2701.66 893.67,2703.66 891.91,2704.72 889.86,2704.83 887.53,2703.99"/>
    </edge>
    <edge id=":PBB_Junc_1" function="internal">
        <lane id=":PBB_Junc_1_0" index="0" speed="19.44" length="20.85" shape="898.00,2703.10 888.25,2721.52"/>
        <lane id=":PBB_Junc_1_1" index="1" speed="19.44" length="20.85" shape="900.86,2704.55 891.10,2723.00"/>
    </edge>
    <edge id=":PBB_Junc_3" function="internal">
        <lane id=":PBB_Junc_3_0" index="0" speed="9.71" length="22.02" shape="900.86,2704.55 899.18,2709.66 899.95,2714.29 903.16,2718.41 908.82,2722.05"/>
    </edge>
    <edge id=":PBB_Junc_4" function="internal">
        <lane id=":PBB_Junc_4_0" index="0" speed="6.50" length="9.07" shape="911.65,2716.31 909.60,2714.90 908.51,2713.18 908.37,2711.13 909.17,2708.77"/>
    </edge>
    <edge id=":PBB_Junc_5" function="internal">
        <lane id=":PBB_Junc_5_0" index="0" speed="19.44" length="27.12" shape="911.65,2716.31 887.53,2703.99"/>
        <lane id=":PBB_Junc_5_1" index="1" speed="19.44" length="27.12" shape="910.23,2719.18 886.03,2706.82"/>
    </edge>
    <edge id=":PBB_Junc_7" function="internal">
        <lane id=":PBB_Junc_7_0" index="0" speed="9.93" length="22.06" shape="910.23,2719.18 903.91,2716.89 898.61,2716.76 894.34,2718.80 891.10,2723.00"/>
    </edge>
    <edge id=":PBB_Junc_8" function="internal">
        <lane id=":PBB_Junc_8_0" index="0" speed="6.69" length="9.36" shape="899.50,2727.35 901.00,2725.32 902.82,2724.24 904.95,2724.10 907.41,2724.92"/>
    </edge>
    <edge id=":PBB_Junc_9" function="internal">
        <lane id=":PBB_Junc_9_0" index="0" speed="19.44" length="20.91" shape="896.66,2725.88 906.32,2707.32"/>
        <lane id=":PBB_Junc_9_1" index="1" speed="19.44" length="20.91" shape="893.82,2724.40 903.46,2705.87"/>
    </edge>
    <edge id=":PBB_Junc_11" function="internal">
        <lane id=":PBB_Junc_11_0" index="0" speed="9.79" length="21.85" shape="893.82,2724.40 895.44,2719.37 894.68,2714.76 891.54,2710.58 886.03,2706.82"/>
    </edge>
    <edge id=":PBB_Junc_12" function="internal">
        <lane id=":PBB_Junc_12_0" index="0" speed="6.53" length="9.03" shape="883.04,2712.48 885.04,2713.93 886.10,2715.68 886.23,2717.72 885.41,2720.05"/>
    </edge>
    <edge id=":PBB_Junc_13" function="internal">
        <lane id=":PBB_Junc_13_0" index="0" speed="19.44" length="27.31" shape="883.04,2712.48 907.41,2724.92"/>
        <lane id=":PBB_Junc_13_1" index="1" speed="19.44" length="27.31" shape="884.54,2709.65 908.82,2722.05"/>
    </edge>
    <edge id=":PBB_Junc_15" function="internal">
        <lane id=":PBB_Junc_15_0" index="0" speed="9.78" length="22.01" shape="884.54,2709.65 890.75,2712.08 895.98,2712.25 900.21,2710.19 903.46,2705.87"/>
    </edge>
    <edge id=":SHE_Junc_0" function="internal">
        <lane id=":SHE_Junc_0_0" index="0" speed="19.44" length="0.10" shape="927.60,2724.16 927.60,2724.16"/>
        <lane id=":SHE_Junc_0_1" index="1" speed="19.44" length="0.10" shape="926.19,2727.03 926.19,2727.03"/>
    </edge>
    <edge id=":SHE_Junc_2" function="internal">
        <lane id=":SHE_Junc_2_0" index="0" speed="19.44" length="0.10" shape="923.36,2732.78 923.36,2732.78"/>
        <lane id=":SHE_Junc_2_1" index="1" speed="19.44" length="0.10" shape="924.77,2729.91 924.77,2729.91"/>
    </edge>
    <edge id=":SHS_Junc_0" function="internal">
        <lane id=":SHS_Junc_0_0" index="0" speed="19.44" length="8.08" shape="923.95,2644.13 920.38,2651.37"/>
        <lane id=":SHS_Junc_0_1" index="1" speed="19.44" length="8.08" shape="926.82,2645.54 923.25,2652.79"/>
        <lane id=":SHS_Junc_0_2" index="2" speed="19.44" length="8.08" shape="929.69,2646.95 926.12,2654.21"/>
    </edge>
    <edge id=":SHS_Junc_3" function="internal">
        <lane id=":SHS_Junc_3_0" index="0" speed="19.44" length="8.50" shape="934.69,2658.46 935.36,2656.01 935.08,2654.13 934.79,2652.24 935.44,2649.78"/>
        <lane id=":SHS_Junc_3_1" index="1" speed="19.44" length="8.50" shape="931.82,2657.04 935.44,2649.78"/>
        <lane id=":SHS_Junc_3_2" index="2" speed="19.44" length="8.50" shape="931.82,2657.04 932.50,2654.59 932.21,2652.71 931.92,2650.82 932.57,2648.37"/>
        <lane id=":SHS_Junc_3_3" index="3" speed="19.44" length="8.50" shape="928.95,2655.62 932.57,2648.37"/>
    </edge>
    <edge id=":SIRIME_Junc_0" function="internal">
        <lane id=":SIRIME_Junc_0_0" index="0" disallow="tram rail_urban rail rail_electric rail_fast ship" speed="19.44" length="7.69" shape="1255.83,1502.59 1253.62,1502.03 1252.32,1500.88 1251.02,1499.66 1248.83,1498.93"/>
        <lane id=":SIRIME_Junc_0_1" index="1" disallow="tram rail_urban rail rail_electric rail_fast ship" speed="19.44" length="7.69" shape="1255.83,1502.59 1248.49,1502.12"/>
        <lane id=":SIRIME_Junc_0_2" index="2" disallow="tram rail_urban rail rail_electric rail_fast ship" speed="19.44" length="7.69" shape="1255.75,1505.78 1248.16,1505.30"/>
    </edge>
    <edge id=":SIRIME_Junc_3" function="internal">
        <lane id=":SIRIME_Junc_3_0" index="0" disallow="tram rail_urban rail rail_electric rail_fast ship" speed="19.44" length="7.99" shape="1247.49,1511.66 1255.60,1512.18"/>
        <lane id=":SIRIME_Junc_3_1" index="1" disallow="tram rail_urban rail rail_electric rail_fast ship" speed="19.44" length="7.99" shape="1247.83,1508.48 1255.67,1508.98"/>
    </edge>
    <edge id=":SIRIMS_Junc_0" function="internal">
        <lane id=":SIRIMS_Junc_0_0" index="0" speed="19.44" length="8.06" shape="1179.44,1328.22 1178.89,1330.58 1177.74,1332.00 1176.56,1333.42 1175.90,1335.77"/>
        <lane id=":SIRIMS_Junc_0_1" index="1" speed="19.44" length="8.06" shape="1179.44,1328.22 1179.10,1335.98"/>
        <lane id=":SIRIMS_Junc_0_2" index="2" speed="19.44" length="8.06" shape="1182.64,1328.31 1182.29,1336.19"/>
    </edge>
    <edge id=":SIRIMS_Junc_3" function="internal">
        <lane id=":SIRIMS_Junc_3_0" index="0" speed="19.44" length="8.09" shape="1188.73,1336.62 1189.05,1328.47"/>
        <lane id=":SIRIMS_Junc_3_1" index="1" speed="19.44" length="8.09" shape="1185.53,1336.41 1185.85,1328.39"/>
    </edge>
    <edge id=":SIRIMS_OffRamp_0" function="internal">
        <lane id=":SIRIMS_OffRamp_0_0" index="0" speed="7.27" length="4.21" shape="1198.72,1493.68 1197.50,1493.52 1196.67,1493.25 1195.97,1492.73 1195.12,1491.84"/>
    </edge>
    <edge id=":SIRIMS_OffRamp_1" function="internal">
        <lane id=":SIRIMS_OffRamp_1_0" index="0" speed="19.44" length="4.34" shape="1198.39,1496.86 1194.07,1496.41"/>
        <lane id=":SIRIMS_OffRamp_1_1" index="1" speed="19.44" length="4.34" shape="1198.05,1500.05 1193.74,1499.60"/>
    </edge>
    <edge id=":SIRIMS_OnRamp_0" function="internal">
        <lane id=":SIRIMS_OnRamp_0_0" index="0" speed="19.44" length="20.46" shape="1184.67,1465.20 1184.07,1461.34 1183.37,1456.92 1182.88,1451.56 1182.92,1444.87"/>
    </edge>
    <edge id=":SIRIMS_OnRamp_1" function="internal">
        <lane id=":SIRIMS_OnRamp_1_0" index="0" speed="19.44" length="20.48" shape="1180.66,1465.27 1182.92,1444.87"/>
        <lane id=":SIRIMS_OnRamp_1_1" index="1" speed="19.44" length="20.48" shape="1177.47,1464.99 1179.73,1444.70"/>
    </edge>
    <edge id=":SIRIM_Junc_0" function="internal">
        <lane id=":SIRIM_Junc_0_0" index="0" speed="19.44" length="25.30" shape="1169.15,1483.55 1166.92,1508.70"/>
        <lane id=":SIRIM_Junc_0_1" index="1" speed="19.44" length="25.30" shape="1172.34,1483.83 1170.10,1509.07"/>
    </edge>
    <edge id=":SIRIM_Junc_2" function="internal">
        <lane id=":SIRIM_Junc_2_0" index="0" speed="10.77" length="25.88" shape="1172.34,1483.83 1172.77,1491.20 1175.22,1496.69 1179.70,1500.30 1186.20,1502.03"/>
    </edge>
    <edge id=":SIRIM_Junc_3" function="internal">
        <lane id=":SIRIM_Junc_3_0" index="0" disallow="tram rail_urban rail rail_electric rail_fast ship" speed="19.44" length="25.77" shape="1186.87,1495.66 1180.26,1494.44 1174.70,1492.50 1169.25,1490.10 1162.97,1487.48"/>
        <lane id=":SIRIM_Junc_3_1" index="1" disallow="tram rail_urban rail rail_electric rail_fast ship" speed="19.44" length="25.77" shape="1186.54,1498.84 1179.80,1497.59 1173.97,1495.59 1168.25,1493.13 1161.85,1490.48"/>
    </edge>
    <edge id=":SIRIM_Junc_5" function="internal">
        <lane id=":SIRIM_Junc_5_0" index="0" speed="9.86" length="21.93" shape="1186.54,1498.84 1179.86,1498.89 1174.89,1500.61 1171.64,1504.00 1170.10,1509.07"/>
    </edge>
    <edge id=":SIRIM_Junc_6" function="internal">
        <lane id=":SIRIM_Junc_6_0" index="0" speed="6.51" length="9.02" shape="1179.70,1510.18 1180.31,1507.78 1181.55,1506.16 1183.40,1505.30 1185.87,1505.21"/>
    </edge>
    <edge id=":SIRIM_Junc_7" function="internal">
        <lane id=":SIRIM_Junc_7_0" index="0" speed="19.44" length="25.47" shape="1176.52,1509.81 1178.97,1484.41"/>
        <lane id=":SIRIM_Junc_7_1" index="1" speed="19.44" length="25.47" shape="1173.34,1509.44 1175.79,1484.13"/>
    </edge>
    <edge id=":SIRIM_Junc_9" function="internal">
        <lane id=":SIRIM_Junc_9_0" index="0" disallow="tram rail_urban rail rail_electric rail_fast ship" speed="11.40" length="24.12" shape="1173.34,1509.44 1173.20,1502.99 1171.24,1497.67 1167.45,1493.51 1161.85,1490.48"/>
    </edge>
    <edge id=":SIRIM_Junc_10" function="internal">
        <lane id=":SIRIM_Junc_10_0" index="0" disallow="tram rail_urban rail rail_electric rail_fast ship" speed="19.44" length="27.52" shape="1159.04,1497.94 1163.82,1499.28 1170.61,1500.34 1178.41,1501.23 1186.20,1502.03"/>
    </edge>
    <edge id=":SIRIM_Junc_11" function="internal">
        <lane id=":SIRIM_Junc_11_0" index="0" disallow="tram rail_urban rail rail_electric rail_fast ship" speed="9.76" length="26.95" shape="1159.04,1497.94 1166.17,1499.51 1171.16,1497.35 1174.28,1492.03 1175.79,1484.13"/>
    </edge>
    <edge id=":SKE_Junc_0" function="internal">
        <lane id=":SKE_Junc_0_0" index="0" disallow="tram rail_urban rail rail_electric rail_fast ship" speed="19.44" length="0.16" shape="1237.98,2211.14 1237.93,2211.15 1237.89,2211.15 1237.86,2211.15 1237.81,2211.14"/>
    </edge>
    <edge id=":SKE_Junc_1" function="internal">
        <lane id=":SKE_Junc_1_0" index="0" disallow="tram rail_urban rail rail_electric rail_fast ship" speed="19.44" length="0.65" shape="1237.47,2217.53 1237.71,2217.55 1237.88,2217.55 1238.04,2217.55 1238.28,2217.54"/>
        <lane id=":SKE_Junc_1_1" index="1" disallow="tram rail_urban rail rail_electric rail_fast ship" speed="19.44" length="0.65" shape="1237.64,2214.34 1237.79,2214.35 1237.89,2214.35 1237.98,2214.35 1238.13,2214.34"/>
    </edge>
    <edge id=":TCN_OffRamp_0" function="internal">
        <lane id=":TCN_OffRamp_0_0" index="0" disallow="tram rail_urban rail rail_electric rail_fast ship" speed="19.44" length="33.51" shape="1106.97,1481.18 1117.31,1484.54 1126.49,1487.56 1133.79,1490.20 1138.51,1492.41"/>
    </edge>
    <edge id=":TCN_OffRamp_1" function="internal">
        <lane id=":TCN_OffRamp_1_0" index="0" disallow="tram rail_urban rail rail_electric rail_fast ship" speed="19.44" length="33.61" shape="1107.97,1478.14 1118.28,1481.60 1127.41,1484.80 1134.73,1487.51 1139.61,1489.46"/>
    </edge>
    <edge id=":TCN_OffRamp_2" function="internal">
        <lane id=":TCN_OffRamp_2_0" index="0" disallow="tram rail_urban rail rail_electric rail_fast ship" speed="19.44" length="33.88" shape="1108.96,1475.10 1119.12,1479.03 1127.91,1483.28 1134.89,1487.03 1139.61,1489.46"/>
    </edge>
    <edge id=":TCN_OnRamp_0" function="internal">
        <lane id=":TCN_OnRamp_0_0" index="0" speed="19.44" length="8.04" shape="1164.50,1529.64 1163.53,1537.65"/>
        <lane id=":TCN_OnRamp_0_1" index="1" speed="19.44" length="8.04" shape="1167.68,1530.01 1166.71,1537.97"/>
    </edge>
    <edge id=":TCN_OnRamp_2" function="internal">
        <lane id=":TCN_OnRamp_2_0" index="0" speed="19.44" length="8.60" shape="1160.42,1528.75 1160.63,1531.29 1160.69,1533.04 1160.59,1534.79 1160.34,1537.33"/>
    </edge>
    <edge id=":TCW_OffRamp_0" function="internal">
        <lane id=":TCW_OffRamp_0_0" index="0" speed="7.31" length="4.12" shape="1167.30,1464.74 1167.18,1465.94 1166.95,1466.76 1166.48,1467.47 1165.65,1468.35"/>
    </edge>
    <edge id=":TCW_OffRamp_1" function="internal">
        <lane id=":TCW_OffRamp_1_0" index="0" speed="19.44" length="4.29" shape="1170.49,1464.95 1170.17,1469.22"/>
        <lane id=":TCW_OffRamp_1_1" index="1" speed="19.44" length="4.29" shape="1173.68,1465.17 1173.36,1469.45"/>
    </edge>
    <edge id=":TCW_OnRamp_0" function="internal">
        <lane id=":TCW_OnRamp_0_0" index="0" disallow="tram rail_urban rail rail_electric rail_fast ship" speed="19.44" length="35.04" shape="1144.39,1476.84 1139.16,1475.33 1131.42,1472.32 1121.89,1468.69 1111.32,1465.32"/>
    </edge>
    <edge id=":TCW_OnRamp_1" function="internal">
        <lane id=":TCW_OnRamp_1_0" index="0" disallow="tram rail_urban rail rail_electric rail_fast ship" speed="19.44" length="34.26" shape="1142.93,1480.61 1110.48,1468.41"/>
        <lane id=":TCW_OnRamp_1_1" index="1" disallow="tram rail_urban rail rail_electric rail_fast ship" speed="19.44" length="34.26" shape="1141.32,1483.44 1109.64,1471.50"/>
    </edge>
    <edge id=":TC_Junc1_0" function="internal">
        <lane id=":TC_Junc1_0_0" index="0" disallow="tram rail_urban rail rail_electric rail_fast ship" speed="19.44" length="13.07" shape="1086.66,1457.59 1073.23,1453.26"/>
        <lane id=":TC_Junc1_0_1" index="1" disallow="tram rail_urban rail rail_electric rail_fast ship" speed="19.44" length="13.07" shape="1084.35,1460.14 1080.88,1458.44 1078.78,1456.72 1076.68,1454.99 1073.23,1453.26"/>
        <lane id=":TC_Junc1_0_2" index="2" disallow="tram rail_urban rail rail_electric rail_fast ship" speed="19.44" length="13.07" shape="1082.03,1462.70 1078.91,1461.13 1077.06,1459.50 1075.21,1457.85 1072.10,1456.25"/>
    </edge>
    <edge id=":TC_Junc1_3" function="internal">
        <lane id=":TC_Junc1_3_0" index="0" disallow="tram rail_urban rail rail_electric rail_fast ship" speed="19.44" length="11.57" shape="1069.84,1462.24 1072.75,1464.14 1074.10,1466.43 1075.44,1468.74 1078.33,1470.72"/>
        <lane id=":TC_Junc1_3_1" index="1" disallow="tram rail_urban rail rail_electric rail_fast ship" speed="19.44" length="11.57" shape="1069.84,1462.24 1072.83,1463.64 1074.70,1464.95 1076.56,1466.29 1079.52,1467.75"/>
        <lane id=":TC_Junc1_3_2" index="2" disallow="tram rail_urban rail rail_electric rail_fast ship" speed="19.44" length="11.57" shape="1070.97,1459.25 1073.98,1460.65 1075.86,1461.97 1077.74,1463.31 1080.72,1464.78"/>
    </edge>
    <edge id=":TM_Junc_0" function="internal">
        <lane id=":TM_Junc_0_0" index="0" speed="19.44" length="8.39" shape="861.72,2764.22 860.95,2766.64 861.17,2768.54 861.41,2770.45 860.68,2772.90"/>
        <lane id=":TM_Junc_0_1" index="1" speed="19.44" length="8.39" shape="864.54,2765.73 860.68,2772.90"/>